THERMO ALL
   300.000  1000.000  5000.000
N2                      N   2    0    0    0G    300.00   5000.00 1000.00    0 1
 2.92664000E+00 1.48797680E-03-5.68476000E-07 1.00970380E-10-6.75335100E-15    2
-9.22797700E+02 5.98052800E+00 3.29867700E+00 1.40824040E-03-3.96322200E-06    3
 5.64151500E-09-2.44485400E-12-1.02089990E+03 3.95037200E+00                   4
AR                      AR  1    0    0    0G    300.00   5000.00 1000.00    0 1
 2.50000000E+00 0.00000000E+00 0.00000000E+00 0.00000000E+00 0.00000000E+00    2
-7.45375000E+02 4.36600000E+00 2.50000000E+00 0.00000000E+00 0.00000000E+00    3
 0.00000000E+00 0.00000000E+00-7.45375000E+02 4.36600000E+00                   4
HE                      HE  1    0    0    0G    200.00   6000.00 1000.00    0 1
 2.50000000E+00 0.00000000E+00 0.00000000E+00 0.00000000E+00 0.00000000E+00    2
-7.45375000E+02 9.28723974E-01 2.50000000E+00 0.00000000E+00 0.00000000E+00    3
 0.00000000E+00 0.00000000E+00-7.45375000E+02 9.28723974E-01                   4
O2                      O   2    0    0    0G    200.00   6000.00 1000.00    0 1
 3.66096083E+00 6.56365523E-04-1.41149485E-07 2.05797658E-11-1.29913248E-15    2
-1.21597725E+03 3.41536184E+00 3.78245636E+00-2.99673415E-03 9.84730200E-06    3
-9.68129508E-09 3.24372836E-12-1.06394356E+03 3.65767573E+00                   4
O                       O   1    0    0    0G    200.00   6000.00 1000.00    0 1
 2.54363697E+00-2.73162486E-05-4.19029520E-09 4.95481845E-12-4.79553694E-16    2
 2.92260120E+04 4.92229457E+00 3.16826710E+00-3.27931884E-03 6.64306396E-06    3
-6.12806624E-09 2.11265971E-12 2.91222592E+04 2.05193346E+00                   4
H                       H   1    0    0    0G    200.00   6000.00 1000.00    0 1
 2.50000000E+00 0.00000000E+00 0.00000000E+00 0.00000000E+00 0.00000000E+00    2
 2.54736600E+04-4.46682850E-01 2.50000000E+00 0.00000000E+00 0.00000000E+00    3
 0.00000000E+00 0.00000000E+00 2.54736600E+04-4.46682850E-01                   4
HO2                     H   1O   2    0    0G    200.00   6000.00 1000.00    0 1
 4.17226590E+00 1.88120980E-03-3.46292970E-07 1.94685160E-11 1.76091530E-16    2
 6.18188510E+01 2.95779740E+00 4.30178800E+00-4.74902010E-03 2.11579530E-05    3
-2.42759610E-08 9.29206700E-12 2.94808760E+02 3.71670100E+00                   4
OH                      H   1O   1    0    0G    200.00   6000.00 1000.00    0 1
 2.83853033E+00 1.10741289E-03-2.94000209E-07 4.20698729E-11-2.42289890E-15    2
 3.69780808E+03 5.84494652E+00 3.99198424E+00-2.40106655E-03 4.61664033E-06    3
-3.87916306E-09 1.36319502E-12 3.36889836E+03-1.03998477E-01                   4
H2                      H   2    0    0    0G    200.00   6000.00 1000.00    0 1
 2.93283050E+00 8.26598020E-04-1.46400570E-07 1.54098510E-11-6.88796150E-16    2
-8.13055820E+02-1.02431640E+00 2.34430290E+00 7.98042480E-03-1.94779170E-05    3
 2.01569670E-08-7.37602890E-12-9.17924130E+02 6.83002180E-01                   4
H2O2                    H   2O   2    0    0G    200.00   6000.00 1000.00    0 1
 4.57977305E+00 4.05326003E-03-1.29844730E-06 1.98211400E-10-1.13968792E-14    2
-1.80071775E+04 6.64970694E-01 4.31515149E+00-8.47390622E-04 1.76404323E-05    3
-2.26762944E-08 9.08950158E-12-1.77067437E+04 3.27373319E+00                   4
H2O                     H   2O   1    0    0G    200.00   6000.00 1000.00    0 1
 2.67703890E+00 2.97318160E-03-7.73768890E-07 9.44335140E-11-4.26899910E-15    2
-2.98858940E+04 6.88255000E+00 4.19863520E+00-2.03640170E-03 6.52034160E-06    3
-5.48792690E-09 1.77196800E-12-3.02937260E+04-8.49009010E-01                   4
CO2                     O   2C   1    0    0G    200.00   6000.00 1000.00    0 1
 4.63651110E+00 2.74145690E-03-9.95897590E-07 1.60386660E-10-9.16198570E-15    2
-4.90249040E+04-1.93489550E+00 2.35681300E+00 8.98412990E-03-7.12206320E-06    3
 2.45730080E-09-1.42885480E-13-4.83719710E+04 9.90090350E+00                   4
CO                      O   1C   1    0    0G    200.00   6000.00 1000.00    0 1
 3.04848590E+00 1.35172810E-03-4.85794050E-07 7.88536440E-11-4.69807460E-15    2
-1.42661170E+04 6.01709770E+00 3.57953350E+00-6.10353690E-04 1.01681430E-06    3
 9.07005860E-10-9.04424490E-13-1.43440860E+04 3.50840930E+00                   4
HCO                     H   1O   1C   1    0G    200.00   6000.00 1000.00    0 1
 3.92001542E+00 2.52279324E-03-6.71004164E-07 1.05615948E-10-7.43798261E-15    2
 3.65342928E+03 3.58077056E+00 4.23754610E+00-3.32075257E-03 1.40030264E-05    3
-1.34239995E-08 4.37416208E-12 3.87241185E+03 3.30834869E+00                   4
CH2O                    H   2O   1C   1    0G    200.00   6000.00 1000.00    0 1
 3.16948070E+00 6.19327420E-03-2.25059810E-06 3.65982450E-10-2.20154100E-14    2
-1.44784250E+04 6.04235330E+00 4.79370360E+00-9.90815180E-03 3.73214590E-05    3
-3.79279020E-08 1.31770150E-11-1.43089550E+04 6.02887020E-01                   4
CH3                     H   3C   1    0    0G    200.00   6000.00 1000.00    0 1
 2.97812060E+00 5.79785200E-03-1.97558000E-06 3.07297900E-10-1.79174160E-14    2
 1.65095130E+04 4.72247990E+00 3.65717970E+00 2.12659790E-03 5.45838830E-06    3
-6.61810030E-09 2.46570740E-12 1.64227160E+04 1.67353540E+00                   4
CH3O                    H   3O   1C   1    0G    200.00   6000.00 1000.00    0 1
 4.75779238E+00 7.44142474E-03-2.69705176E-06 4.38090504E-10-2.63537098E-14    2
 3.90139164E+02-1.96680028E+00 3.71180502E+00-2.80463306E-03 3.76550971E-05    3
-4.73072089E-08 1.86588420E-11 1.30772484E+03 6.57240864E+00                   4
CH4                     H   4C   1    0    0G    200.00   6000.00 1000.00    0 1
 1.91178600E+00 9.60267960E-03-3.38387841E-06 5.38797240E-10-3.19306807E-14    2
-1.00992136E+04 8.48241861E+00 5.14825732E+00-1.37002410E-02 4.93749414E-05    3
-4.91952339E-08 1.70097299E-11-1.02453222E+04-4.63322726E+00                   4
HCCO                    H   1O   1C   2    0G    200.00   6000.00 1000.00    0 1
 5.84690060E+00 3.64059600E-03-1.29590070E-06 2.07969190E-10-1.24000220E-14    2
 1.92484960E+04-5.29165330E+00 2.33501180E+00 1.70100830E-02-2.20188670E-05    3
 1.54064470E-08-4.34550970E-12 2.00502990E+04 1.19767290E+01                   4
C2H3                    H   3C   2    0    0G    200.00   6000.00 1000.00    0 1
 4.15026763E+00 7.54021341E-03-2.62997847E-06 4.15974048E-10-2.45407509E-14    2
 3.38566380E+04 1.72812235E+00 3.36377642E+00 2.65765722E-04 2.79620704E-05    3
-3.72986942E-08 1.51590176E-11 3.44749589E+04 7.91510092E+00                   4
C2H4                    H   4C   2    0    0G    200.00   6000.00 1000.00    0 1
 3.99182724E+00 1.04833908E-02-3.71721342E-06 5.94628366E-10-3.53630386E-14    2
 4.26865851E+03-2.69081762E-01 3.95920063E+00-7.57051373E-03 5.70989993E-05    3
-6.91588352E-08 2.69884190E-11 5.08977598E+03 4.09730213E+00                   4
C2H5                    H   5C   2    0    0G    200.00   3500.00 1000.00    0 1
 1.95465642E+00 1.73972722E-02-7.98206668E-06 1.75217689E-09-1.49641576E-13    2
 1.28575200E+04 1.34624343E+01 4.30646568E+00-4.18658892E-03 4.97142807E-05    3
-5.99126606E-08 2.30509004E-11 1.28416265E+04 4.70720924E+00                   4
CH3O2                   H   3O   2C   1    0G    300.00   5000.00 1365.00    0 1
 6.34718801E+00 7.92089358E-03-2.76601913E-06 4.35360631E-10-2.54984762E-14    2
-1.83436055E+03-7.42552545E+00 3.80497590E+00 9.80784660E-03-3.90940624E-07    3
-2.23072602E-09 6.43310820E-13-4.55625796E+02 7.81789100E+00                   4
C2H6                    H   6C   2    0    0G    200.00   6000.00 1000.00    0 1
 4.04666411E+00 1.53538802E-02-5.47039485E-06 8.77826544E-10-5.23167531E-14    2
-1.24473499E+04-9.68698313E-01 4.29142572E+00-5.50154901E-03 5.99438458E-05    3
-7.08466469E-08 2.68685836E-11-1.15222056E+04 2.66678994E+00                   4
END