!
! ************************************************************************
! ************************************************************************
! ***** ************* Master mechanism C/H/O/N       ********************
! ************************************************************************
! ************************************************************************
!
! GLA/MIL98:  P. Glarborg, M.U. Alzueta, K. Dam-Johansen, and J.A. Miller; 
!             “Kinetic Modeling of Hydrocarbon/Nitric Oxide Interactions 
!             in a Flow Reactor”, Combust. Flame 115, 1-27 (1998)
!
! GLA/BEN08:  P. Glarborg and L.L.B. Bentzen; “Chemical effects of a high 
!             CO2 concentration in oxy-fuel combustion of methane”, 
!             Energy Fuels, 22, 291-296 (2008) 
!
! RAS/GLA07a: C.L. Rasmussen, J. Hansen, P. Marshall, and P. Glarborg; 
!             “Experimental Measurements and Kinetic Modeling of CO/H2/O2/NOx 
!             Conversion at High Pressure”, Int. J. Chem. Kin., in press (2008)
!
! RAS/GLA07b: C.L. Rasmussen and P. Glarborg; “Measurements and Kinetic Modeling 
!             of CH4/O2 and CH4/C2H6/O2 Conversion at High Pressure”, 
!             Int. J. Chem. Kin., in press (2008)
!
! RAS/GLA07c: C.L. Rasmussen, K.H. Andersen, K. Dam-Johansen, and P. Glarborg; 
!             “Methanol oxidation in a flow reactor: implications for the 
!             branching ratio of the CH3OH+OH reaction”, Int. J. Chem. Kin., 
!             in press (2008)
!
!
 ELEMENTS
    O  H  C  N  AR
 END  
!
 SPECIES    
H  O  OH  H2  O2  HO2  H2O  H2O2            
CO CO2 HOCO 
!
CH4 CH3 CH2 CH2(S) CH C
C2H6 C2H5 C2H4 C2H3 C2H2 H2CC C2H C2
CH3OH CH3O CH2OH CH2O HCO 
CH3OOH CH3OO CH2OOH 
CH3CHOH CH2CH2OH CH2CHOH CHCHOH HCCOH   
CH3CHO CH3CO CH2CHO CH2CO HCCO C2O OCHCHO
C2H5OOH C2H5OO C2H5OH C2H5O SC2H4OOH CH2CHOOH CH2CHOO CYCOOC. HOCH2CH2OO
!
C3H6 CH2CHCH2 CH3CHCH CH3CCH2 H2CCCH2 H3CCCH cC3H4 H2CCCH C3H2 C3H
C2H5CHO C2H5CO CH2CHCHO CH3CHCO CH2CHCO
!
AR N2
 END
!
 THERMO
   300.000  1000.000  5000.000 
AR        BUR0302 L 6/88AR  1    0    0    0G   200.000  6000.000 1000.        1
 0.25000000E+01 0.00000000E+00 0.00000000E+00 0.00000000E+00 0.00000000E+00    2
-0.74537500E+03 0.43796749E+01 0.25000000E+01 0.00000000E+00 0.00000000E+00    3
 0.00000000E+00 0.00000000E+00-0.74537500E+03 0.43796749E+01 0.00000000E+00    4
CHCHOH  PG/FULLE97/SAND H   3C   2O   1    0G   300.000  3000.000 1000.00      1 !
 0.57206843E+01 0.10704185E-01-0.50358494E-05 0.11324499E-08-0.10086621E-12    2 !H298 = 27.30 kcal/mol
 0.11364774E+05-0.47081776E+01 0.81498282E-01 0.31640644E-01-0.34085361E-04    3 !S298 = 62.49 cal/mol/K
 0.18978838E-07-0.41950165E-11 0.12576133E+05 0.22908977E+02                   4 !
CH2CHCH2  BUR0302 T 9/96C   3H   5    0    0G   200.000  6000.000 1000.        1 !(C3H5 SYMMETRIC)
 0.70094568D+01 0.13106629D-01-0.46533442D-05 0.74514323D-09-0.44350051D-13    2
 0.16412909D+05-0.13946114D+02 0.14698036D+01 0.19034365D-01 0.14480425D-04    3
-0.35468652D-07 0.16647594D-10 0.18325831D+05 0.16724114D+02 0.19675772D+05    4
CH2CHCHO   BOZ98        C   3H   4O   1    0G   300.000  5000.000 1393.000     1
-0.22422415E+00 0.37935631E-01-0.33263860E-04 0.14880972E-07-0.26103564E-11    2
-0.11578754E+05 0.25238611E+02-0.22422415E+00 0.37935631E-01-0.33263860E-04    3
 0.14880972E-07-0.26103564E-11-0.11578754E+05 0.25238611E+02                   4
CH2CHCO   BUR0302 T05/99C   3H   3O   1    0G   200.000  6000.000 1000.        1 !(C3H3O CH2=CHC*=O)
 6.95842227E+00 1.07193211E-02-3.85218494E-06 6.22009064E-10-3.72401640E-14    2
 5.64826498E+03-1.14745786E+01 3.21169467E+00 1.18422105E-02 1.67462582E-05    3
-3.06947176E-08 1.33048816E-11 7.12815750E+03 1.00881663E+01 8.70564832E+03    4
CH2CHO Vinyloxyl  T04/06C   2H   3O   1    0G   200.000  6000.000 1000.        1 !BURCAT
 5.91636535E+00 8.84650426E-03-3.14954895E-06 5.05413189E-10-3.01304621E-14    2 !H298 =  3.05 kcal/mol
-1.04779892E+03-6.10649981E+00 2.66873956E+00 9.62329538E-03 1.60617438E-05    3 !S298 = 61.85 cal/mol/K
-2.87681820E-08 1.25030066E-11 2.19438429E+02 1.25694476E+01 1.53380440E+03    4 !
CH2CHOH           BOZ06 C   2H   4O   1    0G   300.000  1500.000 1500.        1 !SIL/BOZ06
-0.09611513E+01 0.39459205E-01-0.45157340E-04 0.26804884E-07-0.62063875E-11    2 !H298 =-30.00 kcal/mol
-0.16213850E+05 0.26561595E+02-0.09611513E+01 0.39459205E-01-0.45157340E-04    3 !S298 = 61.73 cal/mol/K
 0.26804884E-07-0.62063875E-11-0.16213850E+05 0.26561595E+02                   4 !
CH2CHOO                0C   2H   3O   2     G   300.000  2000.000 1000.00      1 !JIM/MAR08
 0.14160300E+01 0.29933721E-01-0.26385173E-04 0.11770709E-07-0.20511571E-11    2
 0.11361727E+05 0.18969526E+02 0.14146113E+01 0.29754629E-01-0.25839387E-04    3
 0.11222085E-07-0.18678097E-11 0.11371249E+05 0.19022561E+02                   4
CH2CHOOH               0C   2H   4O   2     G   300.000  2000.000 1000.00      1 !JIM/MAR08
 0.28251887E+01 0.27416672E-01-0.20445609E-04 0.77739928E-08-0.11866050E-11    2
-0.63252694E+04 0.89664101E+01 0.27982099E+01 0.27437708E-01-0.20346847E-04    3
 0.76212730E-08-0.11267055E-11-0.63155298E+04 0.91182864E+01                   4
CH2CH2OH BURCAT   T12/01C   2H   5O   1    0G   200.000  6000.000 1000.        1 !BURCAT
 7.02824536E+00 1.20037746E-02-4.21306455E-06 6.69471213E-10-3.96371893E-14    2 !H298 = -5.70 kcal/mol
-5.92493321E+03-9.40355948E+00 4.47893092E+00 7.59782301E-03 2.81794908E-05    3 !S298 = 69.71 cal/mol/K
-4.26953487E-08 1.78878934E-11-4.71446256E+03 6.38921206E+00-2.86833500E+03    4 !
CH2CO             T 6/94C   2H   2O   1    0G   200.000  6000.000 1000.        1 !BURCAT
 0.57577901E+01 0.63496507E-02-0.22584407E-05 0.36208462E-09-0.21569030E-13    2 !H298 =-11.40 kcal/mol
-0.79786113E+04-0.61064037E+01 0.21401165E+01 0.18088368E-01-0.17324216E-04    3 !S298 = 57.81 cal/mol/K
 0.92767477E-08-0.19915011E-11-0.70430509E+04 0.12198699E+02-0.57366700E+04    4 !
CH2NO2  BUR0302   T04/98C   1H   2N   1O   2G   200.000  6000.000 1000.        1 !BURCAT
 7.67214886E+00 7.04674142E-03-2.55301211E-06 4.14646979E-10-2.49316782E-14    2 !H298 = 36.43 kcal/mol
 1.52307521E+04-1.22510821E+01 2.46754293E+00 1.56130407E-02 4.71686464E-06    3 !S298 = 68.87 cal/mol/K
-2.05123642E-08 1.02705094E-11 1.69015807E+04 1.59016345E+01 1.83372153E+04    4 !
CH2O              L 8/88H   2C   1O   1    0G   200.000  6000.000 1000.        1 !BURCAT
 0.31694807E+01 0.61932742E-02-0.22505981E-05 0.36598245E-09-0.22015410E-13    2 !H298 =-25.95 kcal/mol
-0.14478425E+05 0.60423533E+01 0.47937036E+01-0.99081518E-02 0.37321459E-04    3 !S298 = 52.28 cal/mol/K
-0.37927902E-07 0.13177015E-10-0.14308955E+05 0.60288702E+00-0.13059098E+05    4 !
CH2OH RADICAL     IU2/03C   1H   3O   1    0G   200.000  6000.000 1000.        1 !BURCAT
 5.09312037E+00 5.94758550E-03-2.06496524E-06 3.23006703E-10-1.88125052E-14    2 !H298 = -4.11 kcal/mol
-4.05813228E+03-1.84690613E+00 4.47832317E+00-1.35069687E-03 2.78483707E-05    3 !S298 = 58.35 cal/mol/K
-3.64867397E-08 1.47906775E-11-3.52476728E+03 3.30911984E+00-2.06867272E+03    4 !
CH2OOH                  C   1H   3O   2    0G   200.000  2500.000 1000.006     1 !H298 = 15.79 kcal/mol [JAN/ROS04]
 6.98746029E+00 9.00484259E-03-3.24366912E-06 5.24324826E-10-3.13587080E-14    2 !S298 = 65.89 cal/mol/K [JAN/ROS04]
 5.01257769E+03-1.02619220E+01 5.83126679E+00-3.51771199E-03 4.54550577E-05    3 !Cp(T) scaled Cp[CH3OO](T) to Cp298 = 14.89 cal/mol/K [JAN/ROS04]
-5.66903320E-08 2.21633070E-11 6.06187060E+03-5.79143222E-01                   4 !
CH3               IU0702C   1H   3    0    0G   200.000  6000.000 1000.        1 !BURCAT
 2.97812060E+00 5.79785200E-03-1.97558000E-06 3.07297900E-10-1.79174160E-14    2 !H298 = 146.582+/-0.1 kJ/mol [ATcT(BURCAT)]
 1.64853622E+04 4.72247280E+00 3.65717970E+00 2.12659790E-03 5.45838830E-06    3 !S298 = 46.36 cal/mol/K
-6.61810030E-09 2.46570740E-12 1.63985652E+04 1.67352830E+00                   4 !
CH3CCH2        SANDIA89 C   3H   5          G  0300.00   4000.00  1000.00      1
 0.09101018E+02 0.07964168E-01-0.07884945E-05-0.04562036E-08 0.08529212E-12    2
 0.02670680E+06-0.02150559E+03 0.03385811E+02 0.01404534E+00 0.03204127E-04    3
-0.03824120E-07-0.09053742E-11 0.02909066E+06 0.01126649E+03                   4
CH3CHCH   BUR0302 T 6/96C   3H   5    0    0G   298.150  5000.000 1000.        1 !(S-C3H5)
 0.61342175E+01 0.13325025E-01-0.48645230E-05 0.83773904E-09-0.55161424E-13    2
 0.28626198E+05-0.74112134E+01 0.22361012E+01 0.16387245E-01 0.76639733E-05    3
-0.19364818E-07 0.84155468E-11 0.30173536E+05 0.14806060E+02 0.31602007E+05    4
CH3CHCO   BOZ98         C   3H   4O   1    0G   300.000  5000.000 1393.000     1
-0.22422415E+00 0.37935631E-01-0.33263860E-04 0.14880972E-07-0.26103564E-11    2
-0.11578754E+05 0.25238611E+02-0.22422415E+00 0.37935631E-01-0.33263860E-04    3
 0.14880972E-07-0.26103564E-11-0.11578754E+05 0.25238611E+02                   4
CH3CHO            L 8/88C   2H   4O   1    0G   200.000  6000.000 1000.        1 !BURCAT
 5.40411080E+00 1.17230590E-02-4.22631370E-06 6.83724510E-10-4.09848630E-14    2 !H298 =-166.564+/-0.4 kJ/mol [ATcT(BURCAT)]
-2.26268797E+04-3.48079170E+00 4.72945950E+00-3.19328580E-03 4.75349210E-05    3 !S298 = 63.08 cal/mol/K
-5.74586110E-08 2.19311120E-11-2.16066357E+04 4.10301590E+00                   4 !
CH3CHOH  BURCAT   T10/04C   2H   5O   1    0G   200.000  6000.000 1000.        1 !BURCAT
 6.35842302E+00 1.24356276E-02-4.33096839E-06 6.84530381E-10-4.03713238E-14    2 !H298 =-12.91 kcal/mol
-9.37900432E+03-6.05106112E+00 4.22283250E+00 5.12174798E-03 3.48386522E-05    3 !S298 = 69.06 cal/mol/K
-4.91943637E-08 2.01183723E-11-8.20503939E+03 8.01675700E+00-6.49827831E+03    4 !
CH3CO ACETYL RAD  IU2/03C   2H   3O   1    0G   200.000  6000.000 1000.        1 !BURCAT
 0.53137165E+01 0.91737793E-02-0.33220386E-05 0.53947456E-09-0.32452368E-13    2 !H298 =-2.462 kcal/mol
-0.36450414E+04-0.16757558E+01 0.40358705E+01 0.87729487E-03 0.30710010E-04    3 !S298 = 63.91 cal/mol/K
-0.39247565E-07 0.15296869E-10-0.26820738E+04 0.78617682E+01-0.12388039E+04    4 !
CH3NO BUR0302     T12/92C   1H   3N   1O   1G   200.000  6000.000 1000.        1 !BURCAT
 0.50677397E+01 0.93871079E-02-0.33958317E-05 0.55076729E-09-0.33095301E-13    2 !H298 = 18.88 kcal/mol
 0.71852464E+04-0.10709779E+01 0.52463494E+01-0.68175691E-02 0.46713959E-04    3 !S298 = 62.33 cal/mol/K
-0.53482743E-07 0.19916692E-10 0.79241319E+04 0.18687355E+01 0.95017371E+04    4 !
CH3NO2 BEN/GLA98  pg/melC   1H   3N   1O   2G  0300.00   4000.00  1500.00      1 !GLA/BEN99 updated
 0.01090158E+03 0.04326381E-01-0.04203548E-05-0.01893071E-08 0.03417444E-12    2 !H298 =-16.8 +/-2.1 kcal/mol
-1.36884891E+04-3.34142701E+01 0.03224717E+01 0.02665147E+00-0.01930574E-03    3 !S298 = 66.7 +/-2.0 cal/mol/K
 0.07762620E-07-0.01398746E-10-9.57739615E+03 2.45791199E+01                   4 !
CH3O  METHOXY RAD IU1/03C   1H   3O   1    0G   200.000  6000.000 1000.        1 !BURCAT
 4.75779238E+00 7.44142474E-03-2.69705176E-06 4.38090504E-10-2.63537098E-14    2 !H298 = 20.257+/-0.42 kJ/mol
 2.87372692E+02-1.96679344E+00 3.71180502E+00-2.80463306E-03 3.76550971E-05    3 !S298 = 55.99 cal/mol/K
-4.73072089E-08 1.86588420E-11 1.20495837E+03 6.57241548E+00                   4 !
CH3OH     BUR0302 T06/02C  1.H  4.O  1.   0.G   200.000  6000.000 1000.        1 !BURCAT
 3.52726795E+00 1.03178783E-02-3.62892944E-06 5.77448016E-10-3.42182632E-14    2 !H298 = -48.04 kcal/mol
-2.60028834E+04 5.16758693E+00 5.65851051E+00-1.62983419E-02 6.91938156E-05    3 !S298 = 57.51 cal/mol/K
-7.58372926E-08 2.80427550E-11-2.56119736E+04-8.97330508E-01-2.41746056E+04    4 !
CH3ONO            A 5/05C   1H   3O   2N   1G   200.000  6000.000 1000.        1 !BURCAT
 6.93605239E+00 9.97319424E-03-3.60642537E-06 5.83462161E-10-3.50058729E-14    2 !H298 =-15.64 kcal/mol
-1.08381899E+04-6.98144573E+00 6.15261387E+00-2.91937431E-03 4.14526828E-05    3 !S298 = 72.38 cal/mol/K
-4.93954776E-08 1.85608328E-11-9.85260262E+03 8.04057190E-01-7.87057806E+03    4 !
CH3ONO2           T05/98C   1H   3N   1O   3G   200.000  6000.000 1000.        1 !BURCAT  
 9.77845489E+00 1.10069541E-02-4.25928645E-06 7.18198185E-10-4.42041793E-14    2 !H298 =-29.16 kcal/mol
-1.88804487E+04-2.39163197E+01 3.91363583E+00 1.52137945E-02 1.73479131E-05    3 !S298 = 73.07 cal/mol/K
-3.37074473E-08 1.44322204E-11-1.66103232E+04 9.44208392E+00-1.46737980E+04    4 !
CH3OO PEROX RAD   T04/02C   1H   3O   2    0G   200.000  6000.000 1000.        1 !H298 = 3.0+/-1.2 kcal/mol [MEL/OSB06]
 5.92505819E+00 9.00194542E-03-3.24254309E-06 5.24362718E-10-3.14263003E-14    2 !S298 = 64.44 cal/mol/K [BURCAT]
-1.10522082E+03-4.93743168E+00 4.76597792E+00-3.51077148E-03 4.54394152E-05    3 !Cp [BURCAT]
-5.66763729E-08 2.21591482E-11-5.50325261E+01 4.76021720E+00                   4 !
CH3OOH            A 7/05C   1H   4O   2    0G   200.000  6000.000 1000.        1 !H298 =-30.1+/-1kcal/mol[MAT/FRA05]
 7.76538058E+00 8.61499712E-03-2.98006935E-06 4.68638071E-10-2.75339255E-14    2 !S298 = 65.94cal/mol/K[BURCAT]
-1.82040949E+04-1.43970452E+01 2.90540897E+00 1.74994735E-02 5.28243630E-06    3 !Cp [BURCAT]
-2.52827275E-08 1.34368212E-11-1.67955597E+04 1.13764198E+01                   4 !
CH4    RRHO       g 8/99C  1.H  4.   0.   0.G   200.000  6000.000 1000.        1 !BURCAT
 1.91178600E+00 9.60267960E-03-3.38387841E-06 5.38797240E-10-3.19306807E-14    2 !H298 =-17.83 kcal/mol
-1.00992136E+04 8.48241861E+00 5.14825732E+00-1.37002410E-02 4.93749414E-05    3 !S298 = 44.52 cal/mol/K
-4.91952339E-08 1.70097299E-11-1.02453222E+04-4.63322726E+00-8.97226656E+03    4
CN                      C   1N   1    0    0G   200.000  6000.000 1000.0       1
 3.39912871E+00 7.46548271E-04-1.41493637E-07 1.86747261E-11-1.26032174E-15    2
 5.14665281E+04 4.67150296E+00 3.61256066E+00-9.53015376E-04 2.13757148E-06    3
-3.05000108E-10-4.70518899E-13 5.15179601E+04 3.98240466E+00 5.25707468E+04    4
CNO               103190C   1N   1O   1     G  0300.00   4000.00  1500.00      1
 0.06328598E+02 0.07390401E-02-0.01110761E-05-0.01846498E-09 0.04400816E-13    2
 0.04683387E+06-0.09091839E+02 0.03819863E+02 0.06416255E-01-0.05303312E-04    3
 0.02308211E-07-0.04256414E-11 0.04775979E+06 0.04507300E+02                   4
CN2               121686C   1N   2          G  0300.00   5000.00  1000.00      1
 0.05567064E+02 0.02100501E-01-0.09010517E-05 0.01718572E-08-0.01206255E-12    2
 0.05489968E+06-0.05630054E+02 0.03039964E+02 0.08812105E-01-0.07605508E-04    3
 0.03554357E-07-0.08746100E-11 0.05563268E+06 0.07555298E+02                   4
CNN               121286C   1N   2          G  0300.00   5000.00  1000.00      1
 0.04785930E+02 0.02559554E-01-0.01003133E-04 0.01807149E-08-0.01227383E-12    2
 0.06870411E+06-0.02953957E+01 0.03524436E+02 0.07271923E-01-0.08272698E-04    3
 0.05628705E-07-0.01641576E-10 0.06899647E+06 0.05932445E+02                   4
CO                RUS 79C   1O   1    0    0G   200.000  6000.000 1000.        1 !BURCAT  
 0.30484859E+01 0.13517281E-02-0.48579405E-06 0.78853644E-10-0.46980746E-14    2 !H298 =-26.41 kcal/mol
-0.14266117E+05 0.60170977E+01 0.35795335E+01-0.61035369E-03 0.10168143E-05    3 !S298 = 47.24 cal/mol/K
 0.90700586E-09-0.90442449E-12-0.14344086E+05 0.35084093E+01-0.13293628E+05    4 !
CO2               L 7/88C   1O   2    0    0G   200.000  6000.000 1000.        1 !BURCAT
 0.46365111E+01 0.27414569E-02-0.99589759E-06 0.16038666E-09-0.91619857E-14    2 !H298 =-94.04 kcal/mol
-0.49024904E+05-0.19348955E+01 0.23568130E+01 0.89841299E-02-0.71220632E-05    3 !S298 = 51.09 cal/mol/K
 0.24573008E-08-0.14288548E-12-0.48371971E+05 0.99009035E+01-0.47328105E+05    4 !   
C2H2  BURCAT      g 1/91C   2H   2    0    0G   200.000  6000.000 1000.        1 !BURCAT
 4.65878489E+00 4.88396667E-03-1.60828888E-06 2.46974544E-10-1.38605959E-14    2 !H298 = 228.264+/-0.30 kJ/mol [ATcT(BURCAT)]
 2.57517182E+04-3.99838194E+00 8.08679682E-01 2.33615762E-02-3.55172234E-05    3 !S298 = 48.01 cal/mol/K
 2.80152958E-08-8.50075165E-12 2.64212948E+04 1.39396761E+01                   4 !
C2H3  Vinyl Radi  ATcT/AC   2H   3    0    0G   200.000  6000.000 1000.        1 !BURCAT
 4.15026763E+00 7.54021341E-03-2.62997847E-06 4.15974048E-10-2.45407509E-14    2 !H298 = 70.877 kcal/mol
 3.38566380E+04 1.72812235E+00 3.36377642E+00 2.65765722E-04 2.79620704E-05    3 !S298 = 55.84 cal/mol/K
-3.72986942E-08 1.51590176E-11 3.44749589E+04 7.91510092E+00 3.56701718E+04    4 !
C2H3NO2         burcat97C   2H   3N   1O   2G   200.000  6000.000  B  73.05136 1
 1.00660026E+01 1.04932532E-02-3.92096997E-06 6.47758885E-10-3.93529661E-14    2
-3.10704319E+02-2.61804452E+01 2.75930739E+00 1.70703761E-02 2.37349272E-05    3
-4.77968933E-08 2.14789743E-11 2.29629458E+03 1.46559809E+01 4.00308858E+03    4
C2H4              g 1/00C   2H   4    0    0G   200.000  6000.000 1000.        1 !BURCAT
 3.99182724E+00 1.04833908E-02-3.71721342E-06 5.94628366E-10-3.53630386E-14    2 !H298 = 12.546 kcal/mol
 4.26865851E+03-2.69081762E-01 3.95920063E+00-7.57051373E-03 5.70989993E-05    3 !S298 = 52.41 cal/mol/K
-6.91588352E-08 2.69884190E-11 5.08977598E+03 4.09730213E+00 6.31426266E+03    4 !
C2H5              g 7/00C  2.H  5.   0.   0.G   200.000  6000.000 1000.        1 !BURCAT
 4.28800015E+00 1.24337439E-02-4.41384130E-06 7.06527536E-10-4.20342270E-14    2 !H298 = 28.36 kcal/mol
 1.20564209E+04 8.45299829E-01 4.30642051E+00-4.18635208E-03 4.97137768E-05    3 !S298 = 59.05 cal/mol/K
-5.99121792E-08 2.30507301E-11 1.28416330E+04 4.70738797E+00 1.42712246E+04    4 !
C2H5CHO  BUR0302  T 9/92C   3H   6O   1    0G   273.150  5000.000 1000.        1
 0.33137982E+01 0.26619606E-01-0.10475596E-04 0.18815334E-08-0.12761310E-12    2
-0.25459603E+05 0.96608447E+01 0.76044596E+01-0.86403564E-02 0.73930097E-04    3
-0.79687398E-07 0.28004927E-10-0.25489789E+05-0.67643691E+01-0.23097645E+05    4
C2H5CO   BUR0302  T 9/92C   3H   5O   1    0G   298.150  5000.000 1000.        1
 0.30445698E+01 0.23236429E-01-0.86317936E-05 0.14799550E-08-0.96860829E-13    2
-0.61787211E+04 0.13122302E+02 0.67368294E+01-0.26945299E-02 0.49927017E-04    3
-0.50025808E-07 0.15011503E-10-0.65703366E+04-0.23398732E+01-0.43321855E+04    4
C2H5NO2           T04/98C   2H   5N   1O   2G   200.000  6000.000 1000.        1 !BURCAT
 9.21849299E+00 1.62001532E-02-5.98159944E-06 9.81277173E-10-5.93455530E-14    2 !H298 =-24.02 kcal/mol
-1.68676292E+04-2.07232926E+01 3.37137598E+00 1.37914267E-02 3.84687528E-05    3 !S298 = 76.60 cal/mol/K
-6.02380553E-08 2.49654782E-11-1.43330647E+04 1.40009494E+01-1.24822894E+04    4 !
C2H5O   BURCAT    IU3/03C   2H   5O   1    0G   200.000  6000.000 1000.        1 !BURCAT
 0.66889982E+01 0.13125676E-01-0.47038840E-05 0.75858552E-09-0.45413306E-13    2 !H298 = -3.25 kcal/mol
-0.47457832E+04-0.96983755E+01 0.43074268E+01 0.64147205E-02 0.31139714E-04    3 !S298 = 66.35 cal/mol/K
-0.43314083E-07 0.17276184E-10-0.34027524E+04 0.59025837E+01-0.16357022E+04    4 !
C2H5OH            L 8/88C   2H   6O   1    0G   200.000  6000.00  1000.0       1 !BURCAT
 0.65624365E+01 0.15204222E-01-0.53896795E-05 0.86225011E-09-0.51289787E-13    2 !H298 =-56.15 kcal/mol
-0.31525621E+05-0.94730202E+01 0.48586957E+01-0.37401726E-02 0.69555378E-04    3 !S298 = 67.06 cal/mol/K
-0.88654796E-07 0.35168835E-10-0.29996132E+05 0.48018545E+01-0.28257829E+05    4 !
C2H5ONO           T04/98C   2H   5N   1O   2G   200.000  6000.000 1000.        1 !
 9.21849299E+00 1.62001532E-02-5.98159944E-06 9.81277173E-10-5.93455530E-14    2 !H298 =-24.18 kcal/mol
-1.65544389E+04-1.88591687E+01 3.37137598E+00 1.37914267E-02 3.84687528E-05    3 !S298 = 80.30 cal/mol/K
-6.02380553E-08 2.49654782E-11-1.40198744E+04 1.58650733E+01                   4 !Cp(C2H5ONO) = Cp(C2H5NO2)[BURCAT]
C2H5ONO2          T05/98C   2H   5N   1O   3G   200.000  6000.000 1000.        1 !BURCAT  
 1.21360953E+01 1.70091385E-02-6.43739515E-06 1.07219880E-09-6.54950920E-14    2 !H298 =-37.04 kcal/mol
-2.41902070E+04-3.71640527E+01 3.75721604E+00 1.93623098E-02 3.87534117E-05    3 !S298 = 78.59 cal/mol/K
-6.64089530E-08 2.82505579E-11-2.08444383E+04 1.11813240E+01-1.86391453E+04    4 !
C2H5OO PEROXYETH  T08/00C   2H   5O   2    0G   200.000  6000.000 1000.        1 !
 8.05957692E+00 1.52921019E-02-5.54442603E-06 9.00496195E-10-5.41302799E-14    2 !H298 = -6.8+/-2.3 kcal/mol [BLA/OKU01]
-7.28046326E+03-1.60002097E+01 5.21694144E+00 1.24160003E-04 6.15529492E-05    3 !S298 = 71.69 cal/mol/K [BURCAT]
-7.94505636E-08 3.12101317E-11-5.38473601E+03 4.22289601E+00                   4 !Cp [BURCAT]
C2H5OOH           T10/96C   2H   6O   2    0G   200.000  6000.00  1000.0       1 !
 9.99511555E+00 1.47311626E-02-5.30621235E-06 8.58442516E-10-5.14814807E-14    2 !H298 =-39.5 kcal/mol [BLA/OKU01]
-2.43807954E+04-2.53505771E+01 4.37310002E+00 1.04422436E-02 4.63854723E-05    3 !S298 = 75.17 cal/mol/K [BURCAT]
-7.02772770E-08 2.93034879E-11-2.19319459E+04 8.30117111E+00                   4 !Cp [BURCAT]
C2H6              g 8/88C  2.H  6.   0.   0.G   200.000  6000.000 1000.        1 !BURCAT
 4.04666411E+00 1.53538802E-02-5.47039485E-06 8.77826544E-10-5.23167531E-14    2 !H298 =-20.04 kcal/mol
-1.24473499E+04-9.68698313E-01 4.29142572E+00-5.50154901E-03 5.99438458E-05    3 !S298 = 54.78 cal/mol/K
-7.08466469E-08 2.68685836E-11-1.15222056E+04 2.66678994E+00-1.00849652E+04    4 !
C2O               SandiaC   2O   1          G  0300.00   5000.00  1000.00      1
 0.04849809E+02 0.02947585E-01-0.10907286E-05 0.01792562E-08-0.11157585E-13    2
 0.03282055E+06-0.06453225E+01 0.03368850E+02 0.08241803E-01-0.08765145E-04    3
 0.05569262E-07-0.15400086E-11 0.03317081E+06 0.06713314E+02                   4
C3H      SAND02         C   3H   1    0    0G   300.000  5000.000 1379.000     1
 7.41161046E+00 2.32474455E-03-8.31651522E-07 1.33054187E-10-7.88291041E-15    2
 7.93027328E+04-1.14426814E+01 4.09671975E+00 1.04459122E-02-8.62423108E-06    3
 3.61439580E-09-6.14840960E-13 8.04218661E+04 6.23690786E+00                   4
C3H2     SAND02   SAND  H   2C   3          G  0150.00   4000.00  1000.00      1
 0.07670981E+02 0.02748749E-01-0.04370942E-05-0.06455599E-09 0.16638874E-13    2
 0.63253085E+05-0.12368903E+02 0.03166713E+02 0.02482571E+00-0.04591637E-03    3
 0.04268019E-06-0.14821524E-10 0.64160075E+05 0.08869446E+02                   4
C3H4              SandiaH   4C   3          G  0300.00   4000.00  1400.00      1
 0.09776256E+02 0.05302137E-01-0.03701117E-05-0.03026385E-08 0.05089581E-12    2
 0.01954972E+06-0.03077061E+03 0.02539830E+02 0.16334371E-01-0.01764950E-04    3
-0.04647365E-07 0.01729130E-10 0.02251242E+06 0.09935702E+02                   4
C3H4P             SandiaH   4C   3          G  0300.00   4000.00  1400.00      1
 0.09768102E+02 0.05219151E-01-0.03753140E-05-0.02992191E-08 0.05107878E-12    2
 0.01860277E+06-0.03020678E+03 0.03029730E+02 0.14989613E-01-0.13985000E-05    3
-0.03969619E-07 0.13882165E-11 0.02148408E+06 0.08004594E+02                   4
C3H6      BUR0302 L 4/85C   3H   6    0    0G   300.000  5000.000 1000.        1 !(PROPYLENE)
 0.67213974E 01 0.14931757E-01-0.49652353E-05 0.72510753E-09-0.38001476E-13    2
-0.92453149E 03-0.12155617E 02 0.14575157E 01 0.21142263E-01 0.40468012E-05    3
-0.16319003E-07 0.70475153E-11 0.10740208E 04 0.17399460E 02 0.24557265E 04    4
cC3H4    BUR0302  T12/81C   3H   4    0    0G   300.000  5000.000 1000.        1 !(C3H4 CYCLOPROPENE)
 0.66999931E+01 0.10357372E-01-0.34551167E-05 0.50652949E-09-0.26682276E-13    2
 0.30199051E+05-0.13378770E+02-0.24621047E-01 0.23197215E-01-0.18474357E-05    3
-0.15927593E-07 0.86846155E-11 0.32334137E+05 0.22729762E+02 0.3332728 E+05    4
CYCOOC.   0/12/95  ThmCaC   2H   3O   2    0G   300.000  5000.000 1371.000    01 !ING/BOZ03
 1.05759247E+01 7.64138208E-03-2.75090226E-06 4.41965845E-10-2.62615949E-14    2
 1.58485138E+04-3.19285458E+01-7.68159204E-01 3.22158546E-02-2.19360581E-05    3
 6.70379708E-09-7.12036021E-13 1.99191420E+04 2.95789589E+01                   4
H                 L 6/94H   1    0    0    0G   200.000  6000.000 1000.        1 !BURCAT
 0.25000000E+01 0.00000000E+00 0.00000000E+00 0.00000000E+00 0.00000000E+00    2 !H298 = 52.10 kcal/mol
 0.25473660E+05-0.44668285E+00 0.25000000E+01 0.00000000E+00 0.00000000E+00    3 !S298 = 27.42 cal/mol/K
 0.00000000E+00 0.00000000E+00 0.25473660E+05-0.44668285E+00 0.26219035E+05    4 !
HCO               T 5/03C   1H   1O   1    0G   200.000  6000.000 1000.        1 !BURCAT
 3.92001542E+00 2.52279324E-03-6.71004164E-07 1.05615948E-10-7.43798261E-15    2 !H298 = 42.296+/-0.3 kJ/mol [ATcT(BURCAT)]
 3.65008461E+03 3.58077496E+00 4.23754610E+00-3.32075257E-03 1.40030264E-05    3 !S298 = 53.60 cal/mol/K
-1.34239995E-08 4.37416208E-12 3.86906718E+03 3.30835309E+00                   4 !
HCCO              T 6/94C   2H   1O   1    0G   200.000  6000.000 1000.        1 ! 
 5.84690060E+00 3.64059600E-03-1.29590070E-06 2.07969190E-10-1.24000220E-14    2 !H298 = 178.3+/-1.5 kJ/mol [SZA/STA05]
 1.93444192E+04-5.29165330E+00 2.33501180E+00 1.70100830E-02-2.20188670E-05    3 !S298 = 58.62 cal/mol/K [BURCAT]
 1.54064470E-08-4.34550970E-12 2.01462222E+04 1.19767290E+01                   4 !Cp [BURCAT]
HCCOH   BUR0302   T 4/93C   2H   2O   1    0G   200.000  6000.000 1000.        1 !BURCAT
 0.63660255E+01 0.55038729E-02-0.18851901E-05 0.29446414E-09-0.17218598E-13    2 !H298 = 22.27 kcal/mol
 0.89184965E+04-0.82504705E+01 0.19654173E+01 0.25585205E-01-0.38773334E-04    3 !S298 = 59.54 cal/mol/K
 0.31566335E-07-0.10081670E-10 0.97694090E+04 0.12602749E+02 0.11207642E+05    4 !
HCN               110193H   1C   1N   1     G  0300.00   4000.00  1000.00      1
 0.03426457E+02 0.03924190E-01-0.01601138E-04 0.03161966E-08-0.02432850E-12    2
 0.01485552E+06 0.03607795E+02 0.02417787E+02 0.09031856E-01-0.01107727E-03    3
 0.07980141E-07-0.02311141E-10 0.01501044E+06 0.08222891E+02                   4
HCNH               41687C   1H   2N   1     G  0300.00   4000.00  1000.00      1
 0.04923293E+02 0.03332897E-01-0.03370897E-05-0.01901619E-08 0.03531825E-12    2
 0.03132669E+06-0.01632509E+02 0.02759456E+02 0.06103387E-01 0.07713149E-05    3
-0.02063094E-07 0.01931920E-11 0.03217247E+06 0.01057489E+03                   4
HCNO                    C   1H   1N   1O   1G   300.00   5000.00  1000.00      1
 0.60356200E+01 0.40593330E-02-0.15887770E-05 0.29204810E-09-0.20230570E-13    2
 0.18339880E+05-0.91024050E+01 0.24825640E+01 0.14813560E-01-0.13687980E-04    3
 0.60469050E-08-0.87705910E-12 0.19281540E+05 0.90325330E+01                   4
HNC        46.8         H   1C   1N   1     G  0300.00   5000.00  1500.00      1
 0.05283464E+02 0.01092476E-01-0.01170865E-05-0.02308672E-09 0.03950673E-13    2
 2.16142302E+04-0.06388218E+02 0.03592377E+02 0.05561340E-01-0.05936823E-04    3
 0.03782329E-07-0.09365092E-11 2.22826802E+04 0.02732160E+02                   4
HNCO                    C   1H   1N   1O   1G   300.00   5000.00  1000.00      1
 0.53288440E+01 0.42143370E-02-0.16473930E-05 0.30184220E-09-0.20844800E-13    2
-0.15892150E+05-0.34500500E+01 0.34991880E+01 0.62636580E-02 0.31257680E-05    3
-0.86252000E-08 0.39133720E-11-0.15233280E+05 0.67449930E+01                   4
HOCN                    C   1H   1N   1O   1G   300.00   5000.00  1000.00      1
 0.48074750E+01 0.41918370E-02-0.16199240E-05 0.29436220E-09-0.20214190E-13    2
-0.33443110E+04 0.84660710E+00 0.47161980E+01-0.12249760E-02 0.15769070E-04    3
-0.18447440E-07 0.68406900E-11-0.30276870E+04 0.27314860E+01                   4
HOCO           FAB/JAN05C   1O   2H   1    0G   200.000  3000.000  998.402     1 !H298 =-44.33 kcal/mol [FAB/JAN05]
 4.63988707E+00 5.66362726E-03-2.67855311E-06 6.17048884E-10-5.60953531E-14    2 !S298 = 60.07 cal/mol/K [FAB/JAN05]
-2.40527335E+04 1.90175132E+00 2.82191157E+00 9.66218175E-03-2.78560177E-06    3 !Cp [FAB/JAN05] (polyfit RAS/GLA07a)
-4.12692493E-09 2.61472072E-12-2.35465218E+04 1.14284719E+01                   4 !
HOCH2CH2OO              C   2H   5O   3    0G   300.000  2500.00   800.0       1 !OLI/SOL04 (H); Bozzelli Eastern States 11/2007
 0.05564182E+01 0.41251869E-01-0.31064687E-04 0.12292960E-07-0.19969071E-11    2 !H298 =-40.30 kcal/mol
-0.22047390E+05 0.24998308E+02 0.05564182E+01 0.41251869E-01-0.31064687E-04    3 !S298 = 78.1 cal/mol/K
 0.12292960E-07-0.19969071E-11-0.22047390E+05 0.24998308E+02                   4 !
HON          HF MELIUS93H   1N   1O   1    0G   300.000  5000.000 1671.000    01
 3.78577430E+00 2.86062728E-03-1.02423922E-06 1.64463139E-10-9.77943616E-15    2
 2.93319701E+04 3.12193293E+00 3.33656431E+00 2.67682939E-03 5.61801303E-07    3
-1.11362279E-09 2.84076438E-13 2.95979751E+04 5.96343188E+00                   4
HONO              RUS 89H   1N   1O   2    0G   200.000  6000.000 1000.        1 !BURCAT
 0.57919018E+01 0.36515212E-02-0.12928936E-05 0.20688716E-09-0.12315254E-13    2 !H298 =-18.74 kcal/mol
-0.11565589E+05-0.40558233E+01 0.32141709E+01 0.81276869E-02 0.16602559E-05    3 !S298 = 60.72 cal/mol/K
-0.95285182E-08 0.48715058E-11-0.10753237E+05 0.98219504E+01-0.94355439E+04    4 !
HONO2             T 8/03H   1N   1O   3    0G   200.000  6000.000 1000.        1 !BURCAT
 8.03098942E+00 4.46958589E-03-1.72459491E-06 2.91556153E-10-1.80102702E-14    2 !H298 =-134.112+/-0.18 kJ/mol [ATcT(BURCAT)]
-1.92821685E+04-1.62616720E+01 1.69329154E+00 1.90167702E-02-8.25176697E-06    3 !S298 = 63.76 cal/mol/K
-6.06113827E-09 4.65236978E-12-1.73882411E+04 1.71839655E+01                   4 !
HO2               L 5/89H   1O   2    0    0G   200.000  6000.000 1000.        1 !
 4.17226590E+00 1.88120980E-03-3.46292970E-07 1.94685160E-11 1.76091530E-16    2 !H298 = 12.296+/-0.25 kJ/mol [ATcT(RUS/PIN06)]
 3.02010736E+01 2.95697380E+00 4.30178800E+00-4.74902010E-03 2.11579530E-05    3 !S298 = 54.75 cal/mol/K [BURCAT]
-2.42759610E-08 9.29206700E-12 2.63190983E+02 3.71587740E+00                   4 !Cp [BURCAT]
HNO               ATcT/AH   1N   1O   1    0G   200.000  6000.000 1000.        1 !BURCAT